Version 4
SHEET 1 2000 680
WIRE 32 -160 -80 -160
WIRE 176 -160 32 -160
WIRE 336 -160 176 -160
WIRE -80 -112 -80 -160
WIRE 464 -80 336 -80
WIRE 176 -64 176 -80
WIRE 240 -64 176 -64
WIRE 176 -48 176 -64
WIRE 240 -32 240 -64
WIRE 272 -32 240 -32
WIRE 32 0 32 -80
WIRE 112 0 32 0
WIRE 32 32 32 0
WIRE -16 96 -112 96
WIRE 176 96 176 48
WIRE -192 160 -192 96
WIRE -192 192 -192 160
WIRE -192 304 -192 272
WIRE -192 320 -192 304
WIRE 32 320 32 128
WIRE 48 320 32 320
WIRE 96 320 48 320
WIRE 208 320 176 320
WIRE 256 320 208 320
WIRE 336 320 336 16
WIRE 352 320 336 320
WIRE -192 416 -192 400
FLAG 176 176 0
FLAG 48 400 0
FLAG 208 384 0
FLAG 352 400 0
FLAG -80 -32 0
FLAG -192 416 0
FLAG 464 -80 out
FLAG -192 160 Vin
FLAG -192 304 VDC
FLAG -80 -160 VCC
SYMBOL res 16 -176 R0
SYMATTR InstName RC1
SYMATTR Value 6.8k
SYMBOL res 160 -176 R0
SYMATTR InstName RC2
SYMATTR Value {RC2}
SYMBOL res 320 -176 R0
SYMATTR InstName RC3
SYMATTR Value 250
SYMBOL res 160 80 R0
SYMATTR InstName RE2
SYMATTR Value {RE2}
SYMBOL npn 112 -48 R0
SYMATTR InstName Q1
SYMATTR Value 2N2222
SYMBOL npn 272 -80 R0
SYMATTR InstName Q2
SYMATTR Value 2N2222
SYMBOL res 336 304 R0
SYMATTR InstName RE3
SYMATTR Value 220
SYMBOL res 32 304 R0
SYMATTR InstName RE1
SYMATTR Value 50
SYMBOL cap 192 320 R0
SYMATTR InstName CF
SYMATTR Value {CF}
SYMBOL res 192 304 R90
WINDOW 0 0 56 VBottom 2
WINDOW 3 32 56 VTop 2
SYMATTR InstName RF
SYMATTR Value {RF/2}
SYMBOL res 352 304 R90
WINDOW 0 0 56 VBottom 2
WINDOW 3 32 56 VTop 2
SYMATTR InstName RF2
SYMATTR Value {RF/2}
SYMBOL njf -16 32 R0
SYMATTR InstName J1
SYMATTR Value U309
SYMBOL res -96 80 R90
WINDOW 0 0 56 VBottom 2
WINDOW 3 32 56 VTop 2
SYMATTR InstName RS
SYMATTR Value 50
SYMBOL voltage -192 176 R0
WINDOW 123 24 124 Left 2
WINDOW 39 0 0 Left 2
WINDOW 3 24 44 Left 2
SYMATTR Value2 AC 1
SYMATTR Value SINE(0 100m 1k)
SYMATTR InstName V_AC
SYMBOL voltage -192 304 R0
WINDOW 123 0 0 Left 2
WINDOW 39 0 0 Left 2
SYMATTR InstName V_DC
SYMATTR Value {VDC}
SYMBOL voltage -80 -128 R0
WINDOW 3 24 44 Left 2
WINDOW 123 0 0 Left 2
WINDOW 39 0 0 Left 2
SYMATTR Value 12
SYMATTR InstName V_VCC
TEXT -112 -264 Left 2 !.INCLUDE parametry_inzynierskie.inc
TEXT -240 440 Left 2 !.tran 10m
TEXT -256 520 Left 2 !;ac dec 10m 1 1000meg
TEXT -448 88 Left 2 !.options trtol 5
